<?xml version="1.0" encoding="UTF-8"?>

<!-- generated on 07/19/19 15:11:09 by Eclipse SUMO GUI Version 1.2.0
<configuration xmlns:xsi="http://www.w3.org/2001/XMLSchema-instance" xsi:noNamespaceSchemaLocation="http://sumo.dlr.de/xsd/sumoConfiguration.xsd">

    <input>
        <net-file value="data/motorway.net.xml"/>
        <route-files value="data/motorway.rou.xml"/>
    </input>

    <output>
        <tripinfo-output value="tripinfo.xml"/>
    </output>

    <time>
        <begin value="0"/>
        <end value="1000"/>
        <step-length value="0.01"/>
    </time>

    <processing>
        <lateral-resolution value="1"/>
    </processing>

    <traci_server>
        <remote-port value="49229"/>
    </traci_server>

    <gui_only>
        <gui-settings-file value="data/motorway.view.xml"/>
        <tracker-interval value="0.01"/>
    </gui_only>

</configuration>
