<routes>
                <vType id="pkw_f" accel="0.8" decel="4.5" sigma="0.5" length="5" minGap="2.5" maxSpeed="35"         guiShape="passenger" laneChangeModel="SL2015" latAlignment="center" color="green"/>
                <vType id="pkw_m" accel="0.8" decel="4.5" sigma="0.5" length="5" minGap="2.5" maxSpeed="25"         guiShape="passenger" laneChangeModel="SL2015" latAlignment="center" color="yellow"/>
                <vType id="bus" accel="0.8" decel="4.5" sigma="0.5" length="7" minGap="2.5" maxSpeed="20"         guiShape="bus" laneChangeModel="SL2015" latAlignment="center" color="red"/>
                <vType id="pkw_special" accel="0.8" decel="4.5" sigma="0.5" length="5" minGap="2.5" maxSpeed="0.000001"         guiShape="passenger" laneChangeModel="SL2015" latAlignment="center" color="blue"/>
<route id="route_ego" color="1,1,0" edges="gneE0 gneE1 gneE2 gneE3 gneE4 gneE5 gneE6 gneE8"/>
     	<flow id="pkw11_f" type="pkw_f" from="gneE0" to="Zadao2" begin="0" end="500" probability="0.009839" departLane="free" departSpeed ="random"/> 
     	<flow id="pkw12_f" type="pkw_f" from="gneE0" to="gneE8" begin="0" end="500" probability="0.048493" epartLane="free" departSpeed ="random"/> 
     	<flow id="pkw13_f" type="pkw_f" from="gneE0" to="gneE7" begin="0" end="500" probability="0.075810" departLane="free" departSpeed ="random"/> 
     	<flow id="pkw21_f" type="pkw_f" from="Zadao1" to="Zadao2" begin="0" end="500" probability="0.000569" departLane="free" departSpeed ="random"/> 
     	<flow id="pkw22_f" type="pkw_f" from="Zadao1" to="gneE8" begin="0" end="500" probability="0.002803" departLane="free" departSpeed ="random"/> 
     	<flow id="pkw23_f" type="pkw_f" from="Zadao1" to="gneE7" begin="0" end="500" probability="0.004382" departLane="free" departSpeed ="random"/> 
     	<flow id="pkw11_m" type="pkw_m" from="gneE0" to="Zadao2" begin="0" end="500" probability="0.009300" departLane="free" departSpeed ="random"/> 
     	<flow id="pkw12_m" type="pkw_m" from="gneE0" to="gneE8" begin="0" end="500" probability="0.045836" epartLane="free" departSpeed ="random"/> 
     	<flow id="pkw13_m" type="pkw_m" from="gneE0" to="gneE7" begin="0" end="500" probability="0.071656" departLane="free" departSpeed ="random"/> 
     	<flow id="pkw21_m" type="pkw_m" from="Zadao1" to="Zadao2" begin="0" end="500" probability="0.000538" departLane="free" departSpeed ="random"/> 
     	<flow id="pkw22_m" type="pkw_m" from="Zadao1" to="gneE8" begin="0" end="500" probability="0.002650" departLane="free" departSpeed ="random"/> 
     	<flow id="pkw23_m" type="pkw_m" from="Zadao1" to="gneE7" begin="0" end="500" probability="0.004142" departLane="free" departSpeed ="random"/> 
     	<flow id="bus11" type="bus" from="gneE0" to="Zadao2" begin="0" end="500" probability="0.001663" departLane="free" departSpeed ="random"/> 
     	<flow id="bus12" type="bus" from="gneE0" to="gneE8" begin="0" end="500" probability="0.008196" epartLane="free" departSpeed ="random"/> 
     	<flow id="bus13" type="bus" from="gneE0" to="gneE7" begin="0" end="500" probability="0.012813" departLane="free" departSpeed ="random"/> 
     	<flow id="bus21" type="bus" from="Zadao1" to="Zadao2" begin="0" end="500" probability="0.000096" departLane="free" departSpeed ="random"/> 
     	<flow id="bus22" type="bus" from="Zadao1" to="gneE8" begin="0" end="500" probability="0.000474" departLane="free" departSpeed ="random"/> 
     	<flow id="bus23" type="bus" from="Zadao1" to="gneE7" begin="0" end="500" probability="0.000741" departLane="free" departSpeed ="random"/> 
       <vehicle id="ego" type="pkw_special" route="route_ego" depart="30" color="blue"/>
</routes>
