<routes>
                <vType id="pkw_f" accel="0.8" decel="4.5" sigma="0.5" length="5" minGap="2.5" maxSpeed="35"         guiShape="passenger" laneChangeModel="SL2015" latAlignment="center" color="green"/>
                <vType id="pkw_m" accel="0.8" decel="4.5" sigma="0.5" length="5" minGap="2.5" maxSpeed="25"         guiShape="passenger" laneChangeModel="SL2015" latAlignment="center" color="yellow"/>
                <vType id="bus" accel="0.8" decel="4.5" sigma="0.5" length="7" minGap="2.5" maxSpeed="20"         guiShape="bus" laneChangeModel="SL2015" latAlignment="center" color="red"/>
                <vType id="pkw_special" accel="0.8" decel="4.5" sigma="0.5" length="5" minGap="2.5" maxSpeed="0.000001"         guiShape="passenger" laneChangeModel="SL2015" latAlignment="center" color="blue"/>
<route id="route_ego" color="1,1,0" edges="gneE0 gneE1 gneE2 gneE3 gneE4 gneE5 gneE6 gneE8"/>
     	<flow id="pkw11_f" type="pkw_f" from="gneE0" to="Zadao2" begin="0" end="500" probability="0.014959" departLane="free" departSpeed ="random"/> 
     	<flow id="pkw12_f" type="pkw_f" from="gneE0" to="gneE8" begin="0" end="500" probability="0.046093" epartLane="free" departSpeed ="random"/> 
     	<flow id="pkw13_f" type="pkw_f" from="gneE0" to="gneE7" begin="0" end="500" probability="0.091303" departLane="free" departSpeed ="random"/> 
     	<flow id="pkw21_f" type="pkw_f" from="Zadao1" to="Zadao2" begin="0" end="500" probability="0.001026" departLane="free" departSpeed ="random"/> 
     	<flow id="pkw22_f" type="pkw_f" from="Zadao1" to="gneE8" begin="0" end="500" probability="0.003161" departLane="free" departSpeed ="random"/> 
     	<flow id="pkw23_f" type="pkw_f" from="Zadao1" to="gneE7" begin="0" end="500" probability="0.006262" departLane="free" departSpeed ="random"/> 
     	<flow id="pkw11_m" type="pkw_m" from="gneE0" to="Zadao2" begin="0" end="500" probability="0.018749" departLane="free" departSpeed ="random"/> 
     	<flow id="pkw12_m" type="pkw_m" from="gneE0" to="gneE8" begin="0" end="500" probability="0.057771" epartLane="free" departSpeed ="random"/> 
     	<flow id="pkw13_m" type="pkw_m" from="gneE0" to="gneE7" begin="0" end="500" probability="0.114435" departLane="free" departSpeed ="random"/> 
     	<flow id="pkw21_m" type="pkw_m" from="Zadao1" to="Zadao2" begin="0" end="500" probability="0.001286" departLane="free" departSpeed ="random"/> 
     	<flow id="pkw22_m" type="pkw_m" from="Zadao1" to="gneE8" begin="0" end="500" probability="0.003962" departLane="free" departSpeed ="random"/> 
     	<flow id="pkw23_m" type="pkw_m" from="Zadao1" to="gneE7" begin="0" end="500" probability="0.007849" departLane="free" departSpeed ="random"/> 
     	<flow id="bus11" type="bus" from="gneE0" to="Zadao2" begin="0" end="500" probability="0.003045" departLane="free" departSpeed ="random"/> 
     	<flow id="bus12" type="bus" from="gneE0" to="gneE8" begin="0" end="500" probability="0.009383" epartLane="free" departSpeed ="random"/> 
     	<flow id="bus13" type="bus" from="gneE0" to="gneE7" begin="0" end="500" probability="0.018587" departLane="free" departSpeed ="random"/> 
     	<flow id="bus21" type="bus" from="Zadao1" to="Zadao2" begin="0" end="500" probability="0.000209" departLane="free" departSpeed ="random"/> 
     	<flow id="bus22" type="bus" from="Zadao1" to="gneE8" begin="0" end="500" probability="0.000644" departLane="free" departSpeed ="random"/> 
     	<flow id="bus23" type="bus" from="Zadao1" to="gneE7" begin="0" end="500" probability="0.001275" departLane="free" departSpeed ="random"/> 
     	<trip id="ego" type="pkw_special" depart="30" from="gneE0" to="gneE7" departLane="free" departSpeed ="random"/> 
</routes>
