<routes>
                    <vType id="pkw_f" accel="0.8" decel="4.5" sigma="0.5" length="5" minGap="2.5" maxSpeed="35"             guiShape="passenger" laneChangeModel="SL2015" latAlignment="center" color="green"/>
                    <vType id="pkw_m" accel="0.8" decel="4.5" sigma="0.5" length="5" minGap="2.5" maxSpeed="25"             guiShape="passenger" laneChangeModel="SL2015" latAlignment="center" color="yellow"/>
                    <vType id="bus" accel="0.8" decel="4.5" sigma="0.5" length="7" minGap="2.5" maxSpeed="20"             guiShape="bus" laneChangeModel="SL2015" latAlignment="center" color="red"/>
                    <vType id="pkw_special" accel="0.8" decel="4.5" sigma="0.5" length="5" minGap="2.5" maxSpeed="0.000001"             guiShape="passenger" laneChangeModel="SL2015" latAlignment="center" color="blue"/>

                    <route id="route_ego" color="1,1,0" edges="gneE0 gneE1 gneE2 gneE3 gneE4 gneE5 gneE6 gneE8"/>
     	<trip id="ego" type="pkw_special" depart="10" from="gneE0" to="gneE7" departLane="free" departSpeed ="random"/> 
</routes>
