<routes>
                <vType id="pkw_f" accel="0.8" decel="4.5" sigma="0.5" length="5" minGap="2.5" maxSpeed="35"         guiShape="passenger" laneChangeModel="SL2015" latAlignment="center" color="green"/>
                <vType id="pkw_m" accel="0.8" decel="4.5" sigma="0.5" length="5" minGap="2.5" maxSpeed="25"         guiShape="passenger" laneChangeModel="SL2015" latAlignment="center" color="yellow"/>
                <vType id="bus" accel="0.8" decel="4.5" sigma="0.5" length="7" minGap="2.5" maxSpeed="20"         guiShape="bus" laneChangeModel="SL2015" latAlignment="center" color="red"/>
                <vType id="pkw_special" accel="0.8" decel="4.5" sigma="0.5" length="5" minGap="2.5" maxSpeed="0.000001"         guiShape="passenger" laneChangeModel="SL2015" latAlignment="center" color="blue"/>
<route id="route_ego" color="1,1,0" edges="gneE0 gneE1 gneE2 gneE3 gneE4 gneE5 gneE6 gneE8"/>
     	<flow id="pkw11_f" type="pkw_f" from="gneE0" to="Zadao2" begin="0" end="500" probability="0.007574" departLane="free" departSpeed ="random"/> 
     	<flow id="pkw12_f" type="pkw_f" from="gneE0" to="gneE8" begin="0" end="500" probability="0.053936" epartLane="free" departSpeed ="random"/> 
     	<flow id="pkw13_f" type="pkw_f" from="gneE0" to="gneE7" begin="0" end="500" probability="0.084223" departLane="free" departSpeed ="random"/> 
     	<flow id="pkw21_f" type="pkw_f" from="Zadao1" to="Zadao2" begin="0" end="500" probability="0.000796" departLane="free" departSpeed ="random"/> 
     	<flow id="pkw22_f" type="pkw_f" from="Zadao1" to="gneE8" begin="0" end="500" probability="0.005667" departLane="free" departSpeed ="random"/> 
     	<flow id="pkw23_f" type="pkw_f" from="Zadao1" to="gneE7" begin="0" end="500" probability="0.008849" departLane="free" departSpeed ="random"/> 
     	<flow id="pkw11_m" type="pkw_m" from="gneE0" to="Zadao2" begin="0" end="500" probability="0.005405" departLane="free" departSpeed ="random"/> 
     	<flow id="pkw12_m" type="pkw_m" from="gneE0" to="gneE8" begin="0" end="500" probability="0.038488" epartLane="free" departSpeed ="random"/> 
     	<flow id="pkw13_m" type="pkw_m" from="gneE0" to="gneE7" begin="0" end="500" probability="0.060101" departLane="free" departSpeed ="random"/> 
     	<flow id="pkw21_m" type="pkw_m" from="Zadao1" to="Zadao2" begin="0" end="500" probability="0.000568" departLane="free" departSpeed ="random"/> 
     	<flow id="pkw22_m" type="pkw_m" from="Zadao1" to="gneE8" begin="0" end="500" probability="0.004044" departLane="free" departSpeed ="random"/> 
     	<flow id="pkw23_m" type="pkw_m" from="Zadao1" to="gneE7" begin="0" end="500" probability="0.006314" departLane="free" departSpeed ="random"/> 
     	<flow id="bus11" type="bus" from="gneE0" to="Zadao2" begin="0" end="500" probability="0.001130" departLane="free" departSpeed ="random"/> 
     	<flow id="bus12" type="bus" from="gneE0" to="gneE8" begin="0" end="500" probability="0.008050" epartLane="free" departSpeed ="random"/> 
     	<flow id="bus13" type="bus" from="gneE0" to="gneE7" begin="0" end="500" probability="0.012570" departLane="free" departSpeed ="random"/> 
     	<flow id="bus21" type="bus" from="Zadao1" to="Zadao2" begin="0" end="500" probability="0.000119" departLane="free" departSpeed ="random"/> 
     	<flow id="bus22" type="bus" from="Zadao1" to="gneE8" begin="0" end="500" probability="0.000846" departLane="free" departSpeed ="random"/> 
     	<flow id="bus23" type="bus" from="Zadao1" to="gneE7" begin="0" end="500" probability="0.001321" departLane="free" departSpeed ="random"/> 
       <vehicle id="ego" type="pkw_special" route="route_ego" depart="30" color="blue"/>
</routes>
